tests/data/ieee300.m
function mpc = case300
%CASE300  Synthetic 300-bus power flow test case.
%   Synthetic meshed network with 300 buses, realistic 230kV transmission parameters.
%   base_mva=100, 1 slack bus, 12 PV buses, 287 PQ buses.

mpc.version = '2';
mpc.baseMVA = 100;

%% bus data
%	bus_i	type	Pd	Qd	Gs	Bs	area	Vm	Va	baseKV	zone	Vmax	Vmin
mpc.bus = [
	1	3	0.0	0.0	0	0	1	1.04	0	230	1	1.06	0.94;
	2	2	0.0	0.0	0	0	1	1.026	0	230	1	1.06	0.94;
	3	1	12.3	4.4	0	0	1	1.0	0	230	1	1.06	0.94;
	4	1	30.1	13.5	0	0	1	1.0	0	230	1	1.06	0.94;
	5	1	70.9	33.9	0	0	1	1.0	0	230	1	1.06	0.94;
	6	1	17.8	6.8	0	0	1	1.0	0	230	1	1.06	0.94;
	7	1	12.7	4.4	0	0	1	1.0	0	230	1	1.06	0.94;
	8	1	55.5	16.9	0	0	1	1.0	0	230	1	1.06	0.94;
	9	1	27.9	12.0	0	0	1	1.0	0	230	1	1.06	0.94;
	10	1	59.0	20.3	0	0	1	1.0	0	230	1	1.06	0.94;
	11	1	63.0	29.1	0	0	1	1.0	0	230	1	1.06	0.94;
	12	1	10.6	4.9	0	0	1	1.0	0	230	1	1.06	0.94;
	13	1	72.8	26.8	0	0	1	1.0	0	230	1	1.06	0.94;
	14	1	24.0	11.8	0	0	1	1.0	0	230	1	1.06	0.94;
	15	1	40.3	12.8	0	0	1	1.0	0	230	1	1.06	0.94;
	16	1	18.7	8.8	0	0	1	1.0	0	230	1	1.06	0.94;
	17	1	64.3	29.7	0	0	1	1.0	0	230	1	1.06	0.94;
	18	1	75.7	30.8	0	0	1	1.0	0	230	1	1.06	0.94;
	19	1	97.6	36.7	0	0	1	1.0	0	230	1	1.06	0.94;
	20	1	59.7	27.8	0	0	1	1.0	0	230	1	1.06	0.94;
	21	1	65.7	31.0	0	0	1	1.0	0	230	1	1.06	0.94;
	22	1	62.0	27.3	0	0	1	1.0	0	230	1	1.06	0.94;
	23	1	14.1	4.9	0	0	1	1.0	0	230	1	1.06	0.94;
	24	1	36.0	11.4	0	0	1	1.0	0	230	1	1.06	0.94;
	25	1	31.0	9.9	0	0	1	1.0	0	230	1	1.06	0.94;
	26	1	35.0	14.9	0	0	1	1.0	0	230	1	1.06	0.94;
	27	1	42.8	16.0	0	0	1	1.0	0	230	1	1.06	0.94;
	28	1	28.9	10.2	0	0	1	1.0	0	230	1	1.06	0.94;
	29	1	94.3	40.5	0	0	1	1.0	0	230	1	1.06	0.94;
	30	2	0.0	0.0	0	0	1	1.024	0	230	1	1.06	0.94;
	31	1	25.4	11.3	0	0	1	1.0	0	230	1	1.06	0.94;
	32	1	24.7	9.3	0	0	1	1.0	0	230	1	1.06	0.94;
	33	1	99.1	42.4	0	0	1	1.0	0	230	1	1.06	0.94;
	34	1	60.1	26.3	0	0	1	1.0	0	230	1	1.06	0.94;
	35	1	85.9	39.1	0	0	1	1.0	0	230	1	1.06	0.94;
	36	1	30.6	9.4	0	0	1	1.0	0	230	1	1.06	0.94;
	37	1	38.4	13.6	0	0	1	1.0	0	230	1	1.06	0.94;
	38	1	29.0	14.2	0	0	1	1.0	0	230	1	1.06	0.94;
	39	1	88.9	32.3	0	0	1	1.0	0	230	1	1.06	0.94;
	40	1	69.0	26.2	0	0	1	1.0	0	230	1	1.06	0.94;
	41	1	92.3	36.2	0	0	1	1.0	0	230	1	1.06	0.94;
	42	1	33.8	11.8	0	0	1	1.0	0	230	1	1.06	0.94;
	43	1	60.5	21.3	0	0	1	1.0	0	230	1	1.06	0.94;
	44	1	62.6	30.0	0	0	1	1.0	0	230	1	1.06	0.94;
	45	1	45.9	15.8	0	0	1	1.0	0	230	1	1.06	0.94;
	46	1	99.8	40.1	0	0	1	1.0	0	230	1	1.06	0.94;
	47	1	18.2	5.6	0	0	1	1.0	0	230	1	1.06	0.94;
	48	1	19.9	8.5	0	0	1	1.0	0	230	1	1.06	0.94;
	49	1	81.3	31.3	0	0	1	1.0	0	230	1	1.06	0.94;
	50	2	0.0	0.0	0	0	1	1.003	0	230	1	1.06	0.94;
	51	1	44.3	22.1	0	0	1	1.0	0	230	1	1.06	0.94;
	52	1	57.6	28.5	0	0	1	1.0	0	230	1	1.06	0.94;
	53	1	87.5	26.5	0	0	1	1.0	0	230	1	1.06	0.94;
	54	1	74.9	32.7	0	0	1	1.0	0	230	1	1.06	0.94;
	55	1	58.3	20.6	0	0	1	1.0	0	230	1	1.06	0.94;
	56	1	67.7	21.8	0	0	1	1.0	0	230	1	1.06	0.94;
	57	1	49.1	19.2	0	0	1	1.0	0	230	1	1.06	0.94;
	58	1	95.8	45.5	0	0	1	1.0	0	230	1	1.06	0.94;
	59	1	33.7	13.5	0	0	1	1.0	0	230	1	1.06	0.94;
	60	1	26.1	12.6	0	0	1	1.0	0	230	1	1.06	0.94;
	61	1	88.3	31.8	0	0	1	1.0	0	230	1	1.06	0.94;
	62	1	67.5	28.5	0	0	1	1.0	0	230	1	1.06	0.94;
	63	1	23.8	10.8	0	0	1	1.0	0	230	1	1.06	0.94;
	64	1	58.5	26.7	0	0	1	1.0	0	230	1	1.06	0.94;
	65	1	57.7	17.3	0	0	1	1.0	0	230	1	1.06	0.94;
	66	1	39.2	11.9	0	0	1	1.0	0	230	1	1.06	0.94;
	67	1	93.6	44.5	0	0	1	1.0	0	230	1	1.06	0.94;
	68	1	84.8	30.7	0	0	1	1.0	0	230	1	1.06	0.94;
	69	1	15.2	7.2	0	0	1	1.0	0	230	1	1.06	0.94;
	70	1	95.2	30.2	0	0	1	1.0	0	230	1	1.06	0.94;
	71	1	53.7	16.9	0	0	1	1.0	0	230	1	1.06	0.94;
	72	1	78.5	35.6	0	0	1	1.0	0	230	1	1.06	0.94;
	73	1	21.6	8.5	0	0	1	1.0	0	230	1	1.06	0.94;
	74	1	59.5	21.0	0	0	1	1.0	0	230	1	1.06	0.94;
	75	2	0.0	0.0	0	0	1	1.035	0	230	1	1.06	0.94;
	76	1	48.1	16.5	0	0	1	1.0	0	230	1	1.06	0.94;
	77	1	58.5	26.1	0	0	1	1.0	0	230	1	1.06	0.94;
	78	1	28.1	10.2	0	0	1	1.0	0	230	1	1.06	0.94;
	79	1	99.6	42.8	0	0	1	1.0	0	230	1	1.06	0.94;
	80	1	49.4	19.9	0	0	1	1.0	0	230	1	1.06	0.94;
	81	1	20.9	7.2	0	0	1	1.0	0	230	1	1.06	0.94;
	82	1	40.4	16.9	0	0	1	1.0	0	230	1	1.06	0.94;
	83	1	30.7	10.6	0	0	1	1.0	0	230	1	1.06	0.94;
	84	1	16.4	7.0	0	0	1	1.0	0	230	1	1.06	0.94;
	85	1	30.6	14.7	0	0	1	1.0	0	230	1	1.06	0.94;
	86	1	87.4	27.5	0	0	1	1.0	0	230	1	1.06	0.94;
	87	1	31.4	13.6	0	0	1	1.0	0	230	1	1.06	0.94;
	88	1	29.3	9.6	0	0	1	1.0	0	230	1	1.06	0.94;
	89	1	94.2	39.0	0	0	1	1.0	0	230	1	1.06	0.94;
	90	1	52.5	24.0	0	0	1	1.0	0	230	1	1.06	0.94;
	91	1	82.7	28.0	0	0	1	1.0	0	230	1	1.06	0.94;
	92	1	18.7	7.2	0	0	1	1.0	0	230	1	1.06	0.94;
	93	1	48.1	18.9	0	0	1	1.0	0	230	1	1.06	0.94;
	94	1	75.6	32.9	0	0	1	1.0	0	230	1	1.06	0.94;
	95	1	98.6	31.5	0	0	1	1.0	0	230	1	1.06	0.94;
	96	1	46.2	17.0	0	0	1	1.0	0	230	1	1.06	0.94;
	97	1	87.6	30.6	0	0	1	1.0	0	230	1	1.06	0.94;
	98	1	27.1	10.6	0	0	1	1.0	0	230	1	1.06	0.94;
	99	1	48.0	17.1	0	0	1	1.0	0	230	1	1.06	0.94;
	100	2	0.0	0.0	0	0	1	1.01	0	230	1	1.06	0.94;
	101	1	93.1	36.2	0	0	1	1.0	0	230	1	1.06	0.94;
	102	1	87.5	35.9	0	0	1	1.0	0	230	1	1.06	0.94;
	103	1	14.6	7.3	0	0	1	1.0	0	230	1	1.06	0.94;
	104	1	85.2	42.1	0	0	1	1.0	0	230	1	1.06	0.94;
	105	1	93.4	43.9	0	0	1	1.0	0	230	1	1.06	0.94;
	106	1	25.0	9.9	0	0	1	1.0	0	230	1	1.06	0.94;
	107	1	29.2	11.1	0	0	1	1.0	0	230	1	1.06	0.94;
	108	1	15.3	5.7	0	0	1	1.0	0	230	1	1.06	0.94;
	109	1	98.7	34.8	0	0	1	1.0	0	230	1	1.06	0.94;
	110	1	80.6	31.5	0	0	1	1.0	0	230	1	1.06	0.94;
	111	1	48.1	23.6	0	0	1	1.0	0	230	1	1.06	0.94;
	112	1	99.6	41.0	0	0	1	1.0	0	230	1	1.06	0.94;
	113	1	74.7	24.7	0	0	1	1.0	0	230	1	1.06	0.94;
	114	1	36.7	18.1	0	0	1	1.0	0	230	1	1.06	0.94;
	115	1	62.1	25.4	0	0	1	1.0	0	230	1	1.06	0.94;
	116	1	77.3	24.1	0	0	1	1.0	0	230	1	1.06	0.94;
	117	1	62.6	25.1	0	0	1	1.0	0	230	1	1.06	0.94;
	118	1	86.7	28.7	0	0	1	1.0	0	230	1	1.06	0.94;
	119	1	96.5	30.5	0	0	1	1.0	0	230	1	1.06	0.94;
	120	1	26.7	11.2	0	0	1	1.0	0	230	1	1.06	0.94;
	121	1	70.8	24.6	0	0	1	1.0	0	230	1	1.06	0.94;
	122	1	20.8	9.9	0	0	1	1.0	0	230	1	1.06	0.94;
	123	1	32.2	13.5	0	0	1	1.0	0	230	1	1.06	0.94;
	124	1	65.7	25.2	0	0	1	1.0	0	230	1	1.06	0.94;
	125	2	0.0	0.0	0	0	1	1.023	0	230	1	1.06	0.94;
	126	1	57.1	27.8	0	0	1	1.0	0	230	1	1.06	0.94;
	127	1	28.4	12.6	0	0	1	1.0	0	230	1	1.06	0.94;
	128	1	31.5	11.9	0	0	1	1.0	0	230	1	1.06	0.94;
	129	1	70.5	25.4	0	0	1	1.0	0	230	1	1.06	0.94;
	130	1	38.5	17.3	0	0	1	1.0	0	230	1	1.06	0.94;
	131	1	16.5	6.5	0	0	1	1.0	0	230	1	1.06	0.94;
	132	1	99.9	49.9	0	0	1	1.0	0	230	1	1.06	0.94;
	133	1	16.6	5.7	0	0	1	1.0	0	230	1	1.06	0.94;
	134	1	33.9	16.5	0	0	1	1.0	0	230	1	1.06	0.94;
	135	1	89.3	42.5	0	0	1	1.0	0	230	1	1.06	0.94;
	136	1	43.3	14.4	0	0	1	1.0	0	230	1	1.06	0.94;
	137	1	85.0	37.5	0	0	1	1.0	0	230	1	1.06	0.94;
	138	1	65.1	32.4	0	0	1	1.0	0	230	1	1.06	0.94;
	139	1	68.9	20.8	0	0	1	1.0	0	230	1	1.06	0.94;
	140	1	83.5	30.0	0	0	1	1.0	0	230	1	1.06	0.94;
	141	1	69.7	34.0	0	0	1	1.0	0	230	1	1.06	0.94;
	142	1	22.1	7.1	0	0	1	1.0	0	230	1	1.06	0.94;
	143	1	19.6	8.0	0	0	1	1.0	0	230	1	1.06	0.94;
	144	1	34.5	14.5	0	0	1	1.0	0	230	1	1.06	0.94;
	145	1	74.6	25.4	0	0	1	1.0	0	230	1	1.06	0.94;
	146	1	67.1	23.7	0	0	1	1.0	0	230	1	1.06	0.94;
	147	1	54.0	26.0	0	0	1	1.0	0	230	1	1.06	0.94;
	148	1	86.1	27.4	0	0	1	1.0	0	230	1	1.06	0.94;
	149	1	48.1	17.1	0	0	1	1.0	0	230	1	1.06	0.94;
	150	2	0.0	0.0	0	0	1	1.0	0	230	1	1.06	0.94;
	151	1	79.4	33.9	0	0	1	1.0	0	230	1	1.06	0.94;
	152	1	33.6	15.1	0	0	1	1.0	0	230	1	1.06	0.94;
	153	1	59.7	23.0	0	0	1	1.0	0	230	1	1.06	0.94;
	154	1	10.9	3.4	0	0	1	1.0	0	230	1	1.06	0.94;
	155	1	89.5	43.0	0	0	1	1.0	0	230	1	1.06	0.94;
	156	1	59.1	27.6	0	0	1	1.0	0	230	1	1.06	0.94;
	157	1	62.4	20.6	0	0	1	1.0	0	230	1	1.06	0.94;
	158	1	21.5	7.8	0	0	1	1.0	0	230	1	1.06	0.94;
	159	1	90.9	41.7	0	0	1	1.0	0	230	1	1.06	0.94;
	160	1	87.5	42.0	0	0	1	1.0	0	230	1	1.06	0.94;
	161	1	28.9	10.1	0	0	1	1.0	0	230	1	1.06	0.94;
	162	1	19.3	8.8	0	0	1	1.0	0	230	1	1.06	0.94;
	163	1	89.6	34.2	0	0	1	1.0	0	230	1	1.06	0.94;
	164	1	65.9	21.8	0	0	1	1.0	0	230	1	1.06	0.94;
	165	1	93.7	44.3	0	0	1	1.0	0	230	1	1.06	0.94;
	166	1	97.9	45.2	0	0	1	1.0	0	230	1	1.06	0.94;
	167	1	89.3	27.2	0	0	1	1.0	0	230	1	1.06	0.94;
	168	1	76.3	28.0	0	0	1	1.0	0	230	1	1.06	0.94;
	169	1	93.8	43.2	0	0	1	1.0	0	230	1	1.06	0.94;
	170	1	87.8	40.6	0	0	1	1.0	0	230	1	1.06	0.94;
	171	1	34.0	15.6	0	0	1	1.0	0	230	1	1.06	0.94;
	172	1	19.7	9.3	0	0	1	1.0	0	230	1	1.06	0.94;
	173	1	87.3	30.1	0	0	1	1.0	0	230	1	1.06	0.94;
	174	1	83.5	32.7	0	0	1	1.0	0	230	1	1.06	0.94;
	175	2	0.0	0.0	0	0	1	1.012	0	230	1	1.06	0.94;
	176	1	81.6	28.2	0	0	1	1.0	0	230	1	1.06	0.94;
	177	1	12.1	4.1	0	0	1	1.0	0	230	1	1.06	0.94;
	178	1	39.5	18.7	0	0	1	1.0	0	230	1	1.06	0.94;
	179	1	97.0	34.5	0	0	1	1.0	0	230	1	1.06	0.94;
	180	1	67.7	25.7	0	0	1	1.0	0	230	1	1.06	0.94;
	181	1	98.3	40.0	0	0	1	1.0	0	230	1	1.06	0.94;
	182	1	94.5	30.5	0	0	1	1.0	0	230	1	1.06	0.94;
	183	1	97.3	32.7	0	0	1	1.0	0	230	1	1.06	0.94;
	184	1	96.6	34.1	0	0	1	1.0	0	230	1	1.06	0.94;
	185	1	19.8	7.7	0	0	1	1.0	0	230	1	1.06	0.94;
	186	1	75.6	27.4	0	0	1	1.0	0	230	1	1.06	0.94;
	187	1	64.6	26.0	0	0	1	1.0	0	230	1	1.06	0.94;
	188	1	44.7	18.6	0	0	1	1.0	0	230	1	1.06	0.94;
	189	1	32.9	14.5	0	0	1	1.0	0	230	1	1.06	0.94;
	190	1	10.2	4.9	0	0	1	1.0	0	230	1	1.06	0.94;
	191	1	58.5	26.0	0	0	1	1.0	0	230	1	1.06	0.94;
	192	1	76.8	33.3	0	0	1	1.0	0	230	1	1.06	0.94;
	193	1	42.8	13.4	0	0	1	1.0	0	230	1	1.06	0.94;
	194	1	69.8	25.5	0	0	1	1.0	0	230	1	1.06	0.94;
	195	1	38.3	18.0	0	0	1	1.0	0	230	1	1.06	0.94;
	196	1	74.8	26.9	0	0	1	1.0	0	230	1	1.06	0.94;
	197	1	37.8	14.4	0	0	1	1.0	0	230	1	1.06	0.94;
	198	1	46.2	16.6	0	0	1	1.0	0	230	1	1.06	0.94;
	199	1	21.5	8.3	0	0	1	1.0	0	230	1	1.06	0.94;
	200	2	0.0	0.0	0	0	1	1.038	0	230	1	1.06	0.94;
	201	1	71.0	34.1	0	0	1	1.0	0	230	1	1.06	0.94;
	202	1	65.4	23.6	0	0	1	1.0	0	230	1	1.06	0.94;
	203	1	59.3	17.8	0	0	1	1.0	0	230	1	1.06	0.94;
	204	1	35.8	13.8	0	0	1	1.0	0	230	1	1.06	0.94;
	205	1	62.2	26.8	0	0	1	1.0	0	230	1	1.06	0.94;
	206	1	51.8	20.1	0	0	1	1.0	0	230	1	1.06	0.94;
	207	1	29.2	11.5	0	0	1	1.0	0	230	1	1.06	0.94;
	208	1	91.1	41.8	0	0	1	1.0	0	230	1	1.06	0.94;
	209	1	25.3	8.0	0	0	1	1.0	0	230	1	1.06	0.94;
	210	1	56.4	24.1	0	0	1	1.0	0	230	1	1.06	0.94;
	211	1	40.2	18.6	0	0	1	1.0	0	230	1	1.06	0.94;
	212	1	77.6	33.7	0	0	1	1.0	0	230	1	1.06	0.94;
	213	1	30.2	10.3	0	0	1	1.0	0	230	1	1.06	0.94;
	214	1	12.2	4.3	0	0	1	1.0	0	230	1	1.06	0.94;
	215	1	52.8	24.8	0	0	1	1.0	0	230	1	1.06	0.94;
	216	1	16.6	6.4	0	0	1	1.0	0	230	1	1.06	0.94;
	217	1	66.7	22.6	0	0	1	1.0	0	230	1	1.06	0.94;
	218	1	72.7	29.0	0	0	1	1.0	0	230	1	1.06	0.94;
	219	1	32.0	13.8	0	0	1	1.0	0	230	1	1.06	0.94;
	220	1	10.5	4.7	0	0	1	1.0	0	230	1	1.06	0.94;
	221	1	79.3	25.5	0	0	1	1.0	0	230	1	1.06	0.94;
	222	1	48.3	16.2	0	0	1	1.0	0	230	1	1.06	0.94;
	223	1	96.2	38.8	0	0	1	1.0	0	230	1	1.06	0.94;
	224	1	14.5	5.1	0	0	1	1.0	0	230	1	1.06	0.94;
	225	2	0.0	0.0	0	0	1	1.034	0	230	1	1.06	0.94;
	226	1	51.1	23.5	0	0	1	1.0	0	230	1	1.06	0.94;
	227	1	70.1	34.9	0	0	1	1.0	0	230	1	1.06	0.94;
	228	1	63.6	31.2	0	0	1	1.0	0	230	1	1.06	0.94;
	229	1	90.2	38.1	0	0	1	1.0	0	230	1	1.06	0.94;
	230	1	74.7	30.0	0	0	1	1.0	0	230	1	1.06	0.94;
	231	1	84.8	34.7	0	0	1	1.0	0	230	1	1.06	0.94;
	232	1	90.7	40.7	0	0	1	1.0	0	230	1	1.06	0.94;
	233	1	52.7	18.5	0	0	1	1.0	0	230	1	1.06	0.94;
	234	1	32.3	13.8	0	0	1	1.0	0	230	1	1.06	0.94;
	235	1	78.9	31.9	0	0	1	1.0	0	230	1	1.06	0.94;
	236	1	66.4	23.6	0	0	1	1.0	0	230	1	1.06	0.94;
	237	1	17.0	6.1	0	0	1	1.0	0	230	1	1.06	0.94;
	238	1	34.5	12.6	0	0	1	1.0	0	230	1	1.06	0.94;
	239	1	58.6	19.2	0	0	1	1.0	0	230	1	1.06	0.94;
	240	1	30.8	13.5	0	0	1	1.0	0	230	1	1.06	0.94;
	241	1	73.6	23.0	0	0	1	1.0	0	230	1	1.06	0.94;
	242	1	46.7	19.1	0	0	1	1.0	0	230	1	1.06	0.94;
	243	1	47.4	16.2	0	0	1	1.0	0	230	1	1.06	0.94;
	244	1	47.8	23.0	0	0	1	1.0	0	230	1	1.06	0.94;
	245	1	62.6	27.5	0	0	1	1.0	0	230	1	1.06	0.94;
	246	1	87.1	39.5	0	0	1	1.0	0	230	1	1.06	0.94;
	247	1	44.2	13.3	0	0	1	1.0	0	230	1	1.06	0.94;
	248	1	41.7	18.8	0	0	1	1.0	0	230	1	1.06	0.94;
	249	1	86.8	42.6	0	0	1	1.0	0	230	1	1.06	0.94;
	250	2	0.0	0.0	0	0	1	1.017	0	230	1	1.06	0.94;
	251	1	77.3	31.6	0	0	1	1.0	0	230	1	1.06	0.94;
	252	1	64.3	22.1	0	0	1	1.0	0	230	1	1.06	0.94;
	253	1	29.7	11.5	0	0	1	1.0	0	230	1	1.06	0.94;
	254	1	12.6	4.6	0	0	1	1.0	0	230	1	1.06	0.94;
	255	1	71.1	27.1	0	0	1	1.0	0	230	1	1.06	0.94;
	256	1	24.9	9.8	0	0	1	1.0	0	230	1	1.06	0.94;
	257	1	21.5	9.1	0	0	1	1.0	0	230	1	1.06	0.94;
	258	1	12.4	4.7	0	0	1	1.0	0	230	1	1.06	0.94;
	259	1	60.8	18.6	0	0	1	1.0	0	230	1	1.06	0.94;
	260	1	67.8	22.2	0	0	1	1.0	0	230	1	1.06	0.94;
	261	1	51.6	16.0	0	0	1	1.0	0	230	1	1.06	0.94;
	262	1	44.1	15.1	0	0	1	1.0	0	230	1	1.06	0.94;
	263	1	39.4	17.8	0	0	1	1.0	0	230	1	1.06	0.94;
	264	1	44.1	19.9	0	0	1	1.0	0	230	1	1.06	0.94;
	265	1	84.9	29.8	0	0	1	1.0	0	230	1	1.06	0.94;
	266	1	17.4	5.3	0	0	1	1.0	0	230	1	1.06	0.94;
	267	1	58.5	29.2	0	0	1	1.0	0	230	1	1.06	0.94;
	268	1	41.5	17.8	0	0	1	1.0	0	230	1	1.06	0.94;
	269	1	80.3	34.6	0	0	1	1.0	0	230	1	1.06	0.94;
	270	1	77.9	38.2	0	0	1	1.0	0	230	1	1.06	0.94;
	271	1	27.9	8.5	0	0	1	1.0	0	230	1	1.06	0.94;
	272	1	23.7	7.7	0	0	1	1.0	0	230	1	1.06	0.94;
	273	1	70.3	29.0	0	0	1	1.0	0	230	1	1.06	0.94;
	274	1	29.6	13.0	0	0	1	1.0	0	230	1	1.06	0.94;
	275	2	0.0	0.0	0	0	1	1.031	0	230	1	1.06	0.94;
	276	1	25.1	10.6	0	0	1	1.0	0	230	1	1.06	0.94;
	277	1	77.3	25.0	0	0	1	1.0	0	230	1	1.06	0.94;
	278	1	83.7	41.3	0	0	1	1.0	0	230	1	1.06	0.94;
	279	1	19.7	6.0	0	0	1	1.0	0	230	1	1.06	0.94;
	280	1	38.1	16.6	0	0	1	1.0	0	230	1	1.06	0.94;
	281	1	96.2	36.5	0	0	1	1.0	0	230	1	1.06	0.94;
	282	1	74.4	23.5	0	0	1	1.0	0	230	1	1.06	0.94;
	283	1	72.2	30.7	0	0	1	1.0	0	230	1	1.06	0.94;
	284	1	19.2	8.7	0	0	1	1.0	0	230	1	1.06	0.94;
	285	1	86.5	36.3	0	0	1	1.0	0	230	1	1.06	0.94;
	286	1	20.9	10.4	0	0	1	1.0	0	230	1	1.06	0.94;
	287	1	80.4	29.7	0	0	1	1.0	0	230	1	1.06	0.94;
	288	1	48.6	18.2	0	0	1	1.0	0	230	1	1.06	0.94;
	289	1	55.5	20.4	0	0	1	1.0	0	230	1	1.06	0.94;
	290	1	86.5	40.2	0	0	1	1.0	0	230	1	1.06	0.94;
	291	1	19.5	9.6	0	0	1	1.0	0	230	1	1.06	0.94;
	292	1	67.2	31.3	0	0	1	1.0	0	230	1	1.06	0.94;
	293	1	73.7	28.5	0	0	1	1.0	0	230	1	1.06	0.94;
	294	1	76.0	37.5	0	0	1	1.0	0	230	1	1.06	0.94;
	295	1	34.3	15.8	0	0	1	1.0	0	230	1	1.06	0.94;
	296	1	58.4	23.2	0	0	1	1.0	0	230	1	1.06	0.94;
	297	1	49.2	22.0	0	0	1	1.0	0	230	1	1.06	0.94;
	298	1	34.2	16.1	0	0	1	1.0	0	230	1	1.06	0.94;
	299	1	84.8	26.9	0	0	1	1.0	0	230	1	1.06	0.94;
	300	1	89.3	31.1	0	0	1	1.0	0	230	1	1.06	0.94;
];

%% generator data
%	bus	Pg	Qg	Qmax	Qmin	Vg	mBase	status	Pmax	Pmin
mpc.gen = [
	1	0.0	0.0	500	-200	1.04	100	1	1000	0;
	2	239.4	0.0	120.0	-72.0	1.024	100	1	359.0	0;
	30	213.7	0.0	107.0	-64.0	1.001	100	1	321.0	0;
	50	355.3	0.0	178.0	-107.0	1.007	100	1	533.0	0;
	75	163.6	0.0	82.0	-49.0	1.032	100	1	245.0	0;
	100	202.1	0.0	101.0	-61.0	1.035	100	1	303.0	0;
	125	310.4	0.0	155.0	-93.0	1.011	100	1	466.0	0;
	150	103.0	0.0	52.0	-31.0	1.038	100	1	154.0	0;
	175	125.7	0.0	63.0	-38.0	1.029	100	1	189.0	0;
	200	246.6	0.0	123.0	-74.0	1.03	100	1	370.0	0;
	225	307.2	0.0	154.0	-92.0	1.026	100	1	461.0	0;
	250	247.2	0.0	124.0	-74.0	1.032	100	1	371.0	0;
	275	127.9	0.0	64.0	-38.0	1.009	100	1	192.0	0;
];

%% branch data
%	fbus	tbus	r	x	b	rateA	rateB	rateC	ratio	angle	status
mpc.branch = [
	1	2	0.01976	0.06450	0.02661	400	400	400	0	0	1;
	2	3	0.01605	0.08247	0.02162	400	400	400	0	0	1;
	3	4	0.02068	0.06646	0.03049	400	400	400	0	0	1;
	4	5	0.01261	0.06011	0.01186	400	400	400	0	0	1;
	5	6	0.01127	0.04956	0.02515	400	400	400	0	0	1;
	6	7	0.02096	0.05481	0.01492	400	400	400	0	0	1;
	7	8	0.01623	0.09797	0.03925	400	400	400	0	0	1;
	8	9	0.01692	0.06264	0.01122	400	400	400	0	0	1;
	9	10	0.01130	0.05820	0.01374	400	400	400	0	0	1;
	10	11	0.00824	0.08273	0.01678	400	400	400	0	0	1;
	11	12	0.02456	0.08427	0.03032	400	400	400	0	0	1;
	12	13	0.01015	0.10948	0.02371	400	400	400	0	0	1;
	13	14	0.02284	0.08593	0.02302	400	400	400	0	0	1;
	14	15	0.01549	0.05475	0.00964	400	400	400	0	0	1;
	15	16	0.02400	0.07822	0.03431	400	400	400	0	0	1;
	16	17	0.01481	0.04593	0.02814	400	400	400	0	0	1;
	17	18	0.00891	0.05194	0.02601	400	400	400	0	0	1;
	18	19	0.01317	0.11951	0.01179	400	400	400	0	0	1;
	19	20	0.02100	0.08851	0.03330	400	400	400	0	0	1;
	20	21	0.01184	0.08181	0.02242	400	400	400	0	0	1;
	21	22	0.01553	0.10881	0.03968	400	400	400	0	0	1;
	22	23	0.01319	0.08968	0.02751	400	400	400	0	0	1;
	23	24	0.02058	0.11581	0.01465	400	400	400	0	0	1;
	24	25	0.01159	0.09283	0.01303	400	400	400	0	0	1;
	25	26	0.01095	0.04601	0.00809	400	400	400	0	0	1;
	26	27	0.01566	0.08750	0.01732	400	400	400	0	0	1;
	27	28	0.01194	0.09656	0.03050	400	400	400	0	0	1;
	28	29	0.01572	0.09499	0.03757	400	400	400	0	0	1;
	29	30	0.02139	0.09000	0.02916	400	400	400	0	0	1;
	30	31	0.02387	0.07401	0.02543	400	400	400	0	0	1;
	31	32	0.01901	0.11267	0.03445	400	400	400	0	0	1;
	32	33	0.00921	0.05327	0.01784	400	400	400	0	0	1;
	33	34	0.02073	0.08554	0.01724	400	400	400	0	0	1;
	34	35	0.01011	0.09509	0.03039	400	400	400	0	0	1;
	35	36	0.02403	0.08004	0.02380	400	400	400	0	0	1;
	36	37	0.00937	0.04319	0.02182	400	400	400	0	0	1;
	37	38	0.01348	0.06003	0.01092	400	400	400	0	0	1;
	38	39	0.02435	0.10688	0.02641	400	400	400	0	0	1;
	39	40	0.02416	0.11997	0.02951	400	400	400	0	0	1;
	40	41	0.01258	0.04322	0.03220	400	400	400	0	0	1;
	41	42	0.01600	0.09212	0.03731	400	400	400	0	0	1;
	42	43	0.01109	0.08683	0.02831	400	400	400	0	0	1;
	43	44	0.01636	0.04730	0.01913	400	400	400	0	0	1;
	44	45	0.01367	0.09361	0.03545	400	400	400	0	0	1;
	45	46	0.01361	0.09549	0.01722	400	400	400	0	0	1;
	46	47	0.02407	0.10509	0.02560	400	400	400	0	0	1;
	47	48	0.01573	0.06516	0.01834	400	400	400	0	0	1;
	48	49	0.02449	0.07233	0.02447	400	400	400	0	0	1;
	49	50	0.02480	0.09261	0.02536	400	400	400	0	0	1;
	50	51	0.01503	0.05501	0.01958	400	400	400	0	0	1;
	51	52	0.02086	0.09003	0.03232	400	400	400	0	0	1;
	52	53	0.01146	0.08394	0.03769	400	400	400	0	0	1;
	53	54	0.01545	0.09586	0.01189	400	400	400	0	0	1;
	54	55	0.02454	0.08871	0.01566	400	400	400	0	0	1;
	55	56	0.01069	0.08407	0.02567	400	400	400	0	0	1;
	56	57	0.00958	0.11938	0.03721	400	400	400	0	0	1;
	57	58	0.01584	0.04940	0.03463	400	400	400	0	0	1;
	58	59	0.01647	0.09733	0.02428	400	400	400	0	0	1;
	59	60	0.01265	0.10678	0.03937	400	400	400	0	0	1;
	60	61	0.01214	0.08410	0.02027	400	400	400	0	0	1;
	61	62	0.02367	0.08066	0.03614	400	400	400	0	0	1;
	62	63	0.02269	0.06210	0.03328	400	400	400	0	0	1;
	63	64	0.01505	0.11474	0.02425	400	400	400	0	0	1;
	64	65	0.02195	0.06263	0.01755	400	400	400	0	0	1;
	65	66	0.01798	0.11991	0.02367	400	400	400	0	0	1;
	66	67	0.01053	0.08309	0.01904	400	400	400	0	0	1;
	67	68	0.01738	0.08347	0.02257	400	400	400	0	0	1;
	68	69	0.01347	0.05509	0.03032	400	400	400	0	0	1;
	69	70	0.01772	0.05868	0.03282	400	400	400	0	0	1;
	70	71	0.00874	0.09958	0.03057	400	400	400	0	0	1;
	71	72	0.02179	0.07089	0.02924	400	400	400	0	0	1;
	72	73	0.02195	0.11847	0.02385	400	400	400	0	0	1;
	73	74	0.00863	0.08018	0.02689	400	400	400	0	0	1;
	74	75	0.02278	0.10994	0.02209	400	400	400	0	0	1;
	75	76	0.01694	0.07655	0.03112	400	400	400	0	0	1;
	76	77	0.01497	0.09238	0.01294	400	400	400	0	0	1;
	77	78	0.01598	0.11754	0.01883	400	400	400	0	0	1;
	78	79	0.01978	0.09199	0.03526	400	400	400	0	0	1;
	79	80	0.02249	0.10875	0.02016	400	400	400	0	0	1;
	80	81	0.01338	0.09750	0.03230	400	400	400	0	0	1;
	81	82	0.02283	0.04287	0.01019	400	400	400	0	0	1;
	82	83	0.01873	0.11367	0.03992	400	400	400	0	0	1;
	83	84	0.02070	0.07472	0.01115	400	400	400	0	0	1;
	84	85	0.01877	0.10981	0.02220	400	400	400	0	0	1;
	85	86	0.01980	0.11227	0.00947	400	400	400	0	0	1;
	86	87	0.02153	0.06347	0.01999	400	400	400	0	0	1;
	87	88	0.01047	0.08249	0.02611	400	400	400	0	0	1;
	88	89	0.02147	0.05360	0.01053	400	400	400	0	0	1;
	89	90	0.02280	0.08958	0.01571	400	400	400	0	0	1;
	90	91	0.02352	0.05145	0.02276	400	400	400	0	0	1;
	91	92	0.01232	0.06043	0.00830	400	400	400	0	0	1;
	92	93	0.02168	0.11210	0.02968	400	400	400	0	0	1;
	93	94	0.01069	0.07534	0.01906	400	400	400	0	0	1;
	94	95	0.01799	0.09112	0.02158	400	400	400	0	0	1;
	95	96	0.01225	0.10762	0.01437	400	400	400	0	0	1;
	96	97	0.01454	0.07866	0.01559	400	400	400	0	0	1;
	97	98	0.01772	0.08598	0.03977	400	400	400	0	0	1;
	98	99	0.01302	0.11824	0.02906	400	400	400	0	0	1;
	99	100	0.01267	0.08527	0.02995	400	400	400	0	0	1;
	100	101	0.02066	0.04392	0.02741	400	400	400	0	0	1;
	101	102	0.01644	0.11233	0.01716	400	400	400	0	0	1;
	102	103	0.02158	0.08857	0.01927	400	400	400	0	0	1;
	103	104	0.01882	0.08967	0.02969	400	400	400	0	0	1;
	104	105	0.02026	0.09273	0.03483	400	400	400	0	0	1;
	105	106	0.01868	0.11227	0.02868	400	400	400	0	0	1;
	106	107	0.01325	0.07527	0.02655	400	400	400	0	0	1;
	107	108	0.02045	0.04721	0.01744	400	400	400	0	0	1;
	108	109	0.02071	0.05405	0.01223	400	400	400	0	0	1;
	109	110	0.01717	0.11772	0.02499	400	400	400	0	0	1;
	110	111	0.02353	0.10644	0.01622	400	400	400	0	0	1;
	111	112	0.02202	0.07855	0.03381	400	400	400	0	0	1;
	112	113	0.02069	0.06710	0.01169	400	400	400	0	0	1;
	113	114	0.02437	0.05126	0.03893	400	400	400	0	0	1;
	114	115	0.02262	0.09794	0.03936	400	400	400	0	0	1;
	115	116	0.02444	0.10437	0.01970	400	400	400	0	0	1;
	116	117	0.02144	0.04111	0.02517	400	400	400	0	0	1;
	117	118	0.01573	0.09383	0.02951	400	400	400	0	0	1;
	118	119	0.01794	0.10579	0.03809	400	400	400	0	0	1;
	119	120	0.00984	0.05871	0.00880	400	400	400	0	0	1;
	120	121	0.02303	0.08491	0.03729	400	400	400	0	0	1;
	121	122	0.01176	0.04506	0.03436	400	400	400	0	0	1;
	122	123	0.02346	0.06418	0.02107	400	400	400	0	0	1;
	123	124	0.01038	0.11570	0.01774	400	400	400	0	0	1;
	124	125	0.01637	0.04778	0.03639	400	400	400	0	0	1;
	125	126	0.01031	0.07629	0.02946	400	400	400	0	0	1;
	126	127	0.02063	0.11568	0.02141	400	400	400	0	0	1;
	127	128	0.02062	0.05236	0.02128	400	400	400	0	0	1;
	128	129	0.00968	0.07915	0.02106	400	400	400	0	0	1;
	129	130	0.02418	0.04262	0.01986	400	400	400	0	0	1;
	130	131	0.01554	0.11604	0.03537	400	400	400	0	0	1;
	131	132	0.00969	0.09485	0.02542	400	400	400	0	0	1;
	132	133	0.02462	0.06869	0.02074	400	400	400	0	0	1;
	133	134	0.01123	0.04977	0.03514	400	400	400	0	0	1;
	134	135	0.01573	0.09302	0.02853	400	400	400	0	0	1;
	135	136	0.01815	0.04171	0.03318	400	400	400	0	0	1;
	136	137	0.01214	0.05007	0.02607	400	400	400	0	0	1;
	137	138	0.00917	0.10121	0.01463	400	400	400	0	0	1;
	138	139	0.01167	0.10958	0.01851	400	400	400	0	0	1;
	139	140	0.01051	0.11204	0.00809	400	400	400	0	0	1;
	140	141	0.02259	0.05158	0.01216	400	400	400	0	0	1;
	141	142	0.01226	0.05396	0.02915	400	400	400	0	0	1;
	142	143	0.00844	0.04119	0.03328	400	400	400	0	0	1;
	143	144	0.01204	0.06590	0.01358	400	400	400	0	0	1;
	144	145	0.00889	0.09934	0.02483	400	400	400	0	0	1;
	145	146	0.02068	0.07810	0.03290	400	400	400	0	0	1;
	146	147	0.01673	0.04872	0.02412	400	400	400	0	0	1;
	147	148	0.02407	0.04347	0.03306	400	400	400	0	0	1;
	148	149	0.02274	0.08172	0.02266	400	400	400	0	0	1;
	149	150	0.02439	0.04487	0.02333	400	400	400	0	0	1;
	150	151	0.01483	0.09489	0.02369	400	400	400	0	0	1;
	151	152	0.02346	0.04588	0.01059	400	400	400	0	0	1;
	152	153	0.01834	0.04525	0.01680	400	400	400	0	0	1;
	153	154	0.01876	0.08387	0.01841	400	400	400	0	0	1;
	154	155	0.02491	0.08244	0.02252	400	400	400	0	0	1;
	155	156	0.01829	0.04793	0.03046	400	400	400	0	0	1;
	156	157	0.02250	0.09207	0.03261	400	400	400	0	0	1;
	157	158	0.02025	0.05720	0.02245	400	400	400	0	0	1;
	158	159	0.01188	0.06711	0.02251	400	400	400	0	0	1;
	159	160	0.01507	0.04761	0.02166	400	400	400	0	0	1;
	160	161	0.01931	0.06994	0.01288	400	400	400	0	0	1;
	161	162	0.02369	0.04537	0.03462	400	400	400	0	0	1;
	162	163	0.00958	0.04773	0.03164	400	400	400	0	0	1;
	163	164	0.02180	0.08451	0.02677	400	400	400	0	0	1;
	164	165	0.01755	0.06637	0.01191	400	400	400	0	0	1;
	165	166	0.01401	0.09323	0.03201	400	400	400	0	0	1;
	166	167	0.02276	0.09768	0.03899	400	400	400	0	0	1;
	167	168	0.01821	0.06813	0.02649	400	400	400	0	0	1;
	168	169	0.01162	0.09254	0.01518	400	400	400	0	0	1;
	169	170	0.00984	0.10763	0.01976	400	400	400	0	0	1;
	170	171	0.02096	0.08593	0.03383	400	400	400	0	0	1;
	171	172	0.02237	0.11796	0.03419	400	400	400	0	0	1;
	172	173	0.01843	0.09142	0.00884	400	400	400	0	0	1;
	173	174	0.02379	0.10636	0.01656	400	400	400	0	0	1;
	174	175	0.01107	0.09622	0.01789	400	400	400	0	0	1;
	175	176	0.01378	0.04049	0.03584	400	400	400	0	0	1;
	176	177	0.01763	0.07206	0.01254	400	400	400	0	0	1;
	177	178	0.01876	0.04245	0.03188	400	400	400	0	0	1;
	178	179	0.01166	0.07359	0.01891	400	400	400	0	0	1;
	179	180	0.01429	0.09773	0.03286	400	400	400	0	0	1;
	180	181	0.01765	0.04680	0.00968	400	400	400	0	0	1;
	181	182	0.01068	0.08943	0.02957	400	400	400	0	0	1;
	182	183	0.01263	0.09296	0.02354	400	400	400	0	0	1;
	183	184	0.01551	0.06185	0.03216	400	400	400	0	0	1;
	184	185	0.00993	0.07439	0.01706	400	400	400	0	0	1;
	185	186	0.01953	0.07893	0.02935	400	400	400	0	0	1;
	186	187	0.00877	0.07162	0.02718	400	400	400	0	0	1;
	187	188	0.00813	0.06411	0.01476	400	400	400	0	0	1;
	188	189	0.01033	0.06044	0.01850	400	400	400	0	0	1;
	189	190	0.00813	0.09976	0.01362	400	400	400	0	0	1;
	190	191	0.01446	0.09629	0.02401	400	400	400	0	0	1;
	191	192	0.02217	0.10450	0.01031	400	400	400	0	0	1;
	192	193	0.02265	0.04338	0.00860	400	400	400	0	0	1;
	193	194	0.02366	0.10897	0.02642	400	400	400	0	0	1;
	194	195	0.01775	0.09676	0.02137	400	400	400	0	0	1;
	195	196	0.00996	0.04167	0.01839	400	400	400	0	0	1;
	196	197	0.02162	0.08945	0.03462	400	400	400	0	0	1;
	197	198	0.02364	0.04705	0.03502	400	400	400	0	0	1;
	198	199	0.01214	0.08711	0.02477	400	400	400	0	0	1;
	199	200	0.01473	0.06482	0.01886	400	400	400	0	0	1;
	200	201	0.01366	0.05345	0.02434	400	400	400	0	0	1;
	201	202	0.00994	0.08080	0.03699	400	400	400	0	0	1;
	202	203	0.01394	0.09819	0.03421	400	400	400	0	0	1;
	203	204	0.02186	0.05890	0.01269	400	400	400	0	0	1;
	204	205	0.01135	0.08819	0.03233	400	400	400	0	0	1;
	205	206	0.01914	0.05417	0.03273	400	400	400	0	0	1;
	206	207	0.01640	0.10036	0.03232	400	400	400	0	0	1;
	207	208	0.01563	0.11393	0.02606	400	400	400	0	0	1;
	208	209	0.01880	0.08996	0.03566	400	400	400	0	0	1;
	209	210	0.01866	0.05208	0.01019	400	400	400	0	0	1;
	210	211	0.01552	0.06423	0.01679	400	400	400	0	0	1;
	211	212	0.00895	0.08059	0.01793	400	400	400	0	0	1;
	212	213	0.01568	0.04455	0.03461	400	400	400	0	0	1;
	213	214	0.00930	0.10914	0.03537	400	400	400	0	0	1;
	214	215	0.01846	0.08057	0.02281	400	400	400	0	0	1;
	215	216	0.01742	0.10335	0.03667	400	400	400	0	0	1;
	216	217	0.01565	0.10479	0.02886	400	400	400	0	0	1;
	217	218	0.01347	0.07805	0.01283	400	400	400	0	0	1;
	218	219	0.00905	0.04828	0.03677	400	400	400	0	0	1;
	219	220	0.01384	0.09715	0.02415	400	400	400	0	0	1;
	220	221	0.01093	0.05982	0.02201	400	400	400	0	0	1;
	221	222	0.01547	0.08182	0.01308	400	400	400	0	0	1;
	222	223	0.01434	0.06263	0.02108	400	400	400	0	0	1;
	223	224	0.01375	0.08783	0.03326	400	400	400	0	0	1;
	224	225	0.01900	0.04527	0.01102	400	400	400	0	0	1;
	225	226	0.01953	0.06273	0.03116	400	400	400	0	0	1;
	226	227	0.01916	0.11251	0.03594	400	400	400	0	0	1;
	227	228	0.01367	0.08662	0.01253	400	400	400	0	0	1;
	228	229	0.01395	0.11742	0.03035	400	400	400	0	0	1;
	229	230	0.01466	0.08760	0.03802	400	400	400	0	0	1;
	230	231	0.01326	0.07013	0.03333	400	400	400	0	0	1;
	231	232	0.02182	0.09361	0.03453	400	400	400	0	0	1;
	232	233	0.02056	0.09483	0.02484	400	400	400	0	0	1;
	233	234	0.01898	0.07387	0.01958	400	400	400	0	0	1;
	234	235	0.01416	0.05442	0.01485	400	400	400	0	0	1;
	235	236	0.02411	0.07890	0.01525	400	400	400	0	0	1;
	236	237	0.01034	0.04617	0.03502	400	400	400	0	0	1;
	237	238	0.00972	0.10167	0.03472	400	400	400	0	0	1;
	238	239	0.02302	0.04302	0.01878	400	400	400	0	0	1;
	239	240	0.02103	0.05048	0.02006	400	400	400	0	0	1;
	240	241	0.01076	0.10651	0.03268	400	400	400	0	0	1;
	241	242	0.02175	0.05324	0.02201	400	400	400	0	0	1;
	242	243	0.01498	0.09411	0.01560	400	400	400	0	0	1;
	243	244	0.01555	0.06279	0.03195	400	400	400	0	0	1;
	244	245	0.01563	0.08272	0.01790	400	400	400	0	0	1;
	245	246	0.02175	0.07752	0.03472	400	400	400	0	0	1;
	246	247	0.01425	0.11577	0.03950	400	400	400	0	0	1;
	247	248	0.01585	0.06254	0.02022	400	400	400	0	0	1;
	248	249	0.01697	0.11730	0.03414	400	400	400	0	0	1;
	249	250	0.02162	0.05107	0.01600	400	400	400	0	0	1;
	250	251	0.01890	0.10993	0.02575	400	400	400	0	0	1;
	251	252	0.00974	0.10767	0.03524	400	400	400	0	0	1;
	252	253	0.01285	0.10105	0.01673	400	400	400	0	0	1;
	253	254	0.02339	0.05179	0.02200	400	400	400	0	0	1;
	254	255	0.02409	0.05776	0.02244	400	400	400	0	0	1;
	255	256	0.01394	0.04213	0.00970	400	400	400	0	0	1;
	256	257	0.01653	0.05886	0.03982	400	400	400	0	0	1;
	257	258	0.01437	0.04226	0.03779	400	400	400	0	0	1;
	258	259	0.02227	0.09200	0.03332	400	400	400	0	0	1;
	259	260	0.01034	0.06295	0.03455	400	400	400	0	0	1;
	260	261	0.01983	0.05110	0.03058	400	400	400	0	0	1;
	261	262	0.01563	0.04042	0.01054	400	400	400	0	0	1;
	262	263	0.01235	0.10680	0.02556	400	400	400	0	0	1;
	263	264	0.02036	0.08222	0.01156	400	400	400	0	0	1;
	264	265	0.01290	0.06409	0.00953	400	400	400	0	0	1;
	265	266	0.01514	0.10351	0.02263	400	400	400	0	0	1;
	266	267	0.00988	0.11241	0.02710	400	400	400	0	0	1;
	267	268	0.00828	0.08123	0.01574	400	400	400	0	0	1;
	268	269	0.01044	0.07434	0.02767	400	400	400	0	0	1;
	269	270	0.01209	0.07333	0.02926	400	400	400	0	0	1;
	270	271	0.00946	0.11797	0.01017	400	400	400	0	0	1;
	271	272	0.01694	0.08059	0.03963	400	400	400	0	0	1;
	272	273	0.01742	0.07124	0.02304	400	400	400	0	0	1;
	273	274	0.01881	0.11848	0.01612	400	400	400	0	0	1;
	274	275	0.00828	0.10308	0.01903	400	400	400	0	0	1;
	275	276	0.02046	0.09026	0.03269	400	400	400	0	0	1;
	276	277	0.02050	0.06660	0.00942	400	400	400	0	0	1;
	277	278	0.01728	0.10508	0.01360	400	400	400	0	0	1;
	278	279	0.02125	0.07717	0.03025	400	400	400	0	0	1;
	279	280	0.01874	0.10492	0.01002	400	400	400	0	0	1;
	280	281	0.02120	0.07661	0.01739	400	400	400	0	0	1;
	281	282	0.00874	0.05596	0.00934	400	400	400	0	0	1;
	282	283	0.02387	0.08123	0.03965	400	400	400	0	0	1;
	283	284	0.01723	0.06027	0.03211	400	400	400	0	0	1;
	284	285	0.01125	0.06856	0.03299	400	400	400	0	0	1;
	285	286	0.02272	0.06655	0.01198	400	400	400	0	0	1;
	286	287	0.01426	0.11116	0.03179	400	400	400	0	0	1;
	287	288	0.02321	0.07093	0.03916	400	400	400	0	0	1;
	288	289	0.01644	0.07980	0.03758	400	400	400	0	0	1;
	289	290	0.01683	0.10409	0.03127	400	400	400	0	0	1;
	290	291	0.00934	0.08820	0.03431	400	400	400	0	0	1;
	291	292	0.01727	0.06570	0.01056	400	400	400	0	0	1;
	292	293	0.01924	0.06452	0.02728	400	400	400	0	0	1;
	293	294	0.01524	0.09518	0.01925	400	400	400	0	0	1;
	294	295	0.00872	0.10960	0.01928	400	400	400	0	0	1;
	295	296	0.02497	0.06196	0.03936	400	400	400	0	0	1;
	296	297	0.02411	0.04600	0.02840	400	400	400	0	0	1;
	297	298	0.01418	0.10409	0.02974	400	400	400	0	0	1;
	298	299	0.02420	0.05142	0.02744	400	400	400	0	0	1;
	299	300	0.02128	0.04278	0.01015	400	400	400	0	0	1;
	1	300	0.02123	0.06931	0.02025	400	400	400	0	0	1;
	1	50	0.00996	0.08118	0.02121	400	400	400	0	0	1;
	1	100	0.01578	0.03099	0.01343	400	400	400	0	0	1;
	1	150	0.00943	0.07721	0.00983	400	400	400	0	0	1;
	50	150	0.01416	0.07471	0.01514	400	400	400	0	0	1;
	100	200	0.01142	0.05295	0.01502	400	400	400	0	0	1;
	150	250	0.00643	0.09872	0.01694	400	400	400	0	0	1;
	2	100	0.01904	0.03048	0.01459	400	400	400	0	0	1;
	50	200	0.01170	0.04869	0.01324	400	400	400	0	0	1;
	100	250	0.01374	0.07010	0.01154	400	400	400	0	0	1;
	30	150	0.01039	0.04654	0.02169	400	400	400	0	0	1;
	75	200	0.01198	0.04118	0.02215	400	400	400	0	0	1;
	125	250	0.01885	0.09215	0.02425	400	400	400	0	0	1;
	13	25	0.01535	0.07471	0.02852	400	400	400	0	0	1;
	16	25	0.01051	0.04546	0.02893	400	400	400	0	0	1;
	19	25	0.01217	0.06185	0.02972	400	400	400	0	0	1;
	22	25	0.01060	0.07914	0.02782	400	400	400	0	0	1;
	25	28	0.01636	0.08614	0.02564	400	400	400	0	0	1;
	25	31	0.01643	0.07762	0.01990	400	400	400	0	0	1;
	25	34	0.01681	0.06679	0.01820	400	400	400	0	0	1;
	63	75	0.01043	0.09421	0.00781	400	400	400	0	0	1;
	66	75	0.01743	0.09320	0.01005	400	400	400	0	0	1;
	69	75	0.01305	0.04152	0.02636	400	400	400	0	0	1;
	72	75	0.01163	0.07762	0.02292	400	400	400	0	0	1;
	75	78	0.01233	0.09292	0.01614	400	400	400	0	0	1;
	75	81	0.00583	0.03924	0.01539	400	400	400	0	0	1;
	75	84	0.01346	0.06912	0.02182	400	400	400	0	0	1;
	113	125	0.00962	0.03152	0.01136	400	400	400	0	0	1;
	116	125	0.00505	0.04525	0.00683	400	400	400	0	0	1;
	119	125	0.01136	0.07903	0.01853	400	400	400	0	0	1;
	122	125	0.00590	0.09260	0.02965	400	400	400	0	0	1;
	125	128	0.01208	0.05010	0.00950	400	400	400	0	0	1;
	125	131	0.00703	0.07491	0.02323	400	400	400	0	0	1;
	125	134	0.01946	0.05621	0.02728	400	400	400	0	0	1;
	163	175	0.01173	0.09420	0.01444	400	400	400	0	0	1;
	166	175	0.00620	0.09749	0.02686	400	400	400	0	0	1;
	169	175	0.00699	0.09022	0.00797	400	400	400	0	0	1;
	172	175	0.01989	0.05751	0.00818	400	400	400	0	0	1;
	175	178	0.01968	0.08844	0.02390	400	400	400	0	0	1;
	175	181	0.01968	0.06241	0.02298	400	400	400	0	0	1;
	175	184	0.01136	0.05655	0.01074	400	400	400	0	0	1;
	213	225	0.01191	0.04086	0.00971	400	400	400	0	0	1;
	216	225	0.01813	0.08358	0.00581	400	400	400	0	0	1;
	219	225	0.01490	0.07304	0.02841	400	400	400	0	0	1;
	222	225	0.01834	0.04685	0.00668	400	400	400	0	0	1;
	225	228	0.01391	0.06125	0.02180	400	400	400	0	0	1;
	225	231	0.01808	0.04713	0.00611	400	400	400	0	0	1;
	225	234	0.01158	0.06778	0.02386	400	400	400	0	0	1;
	263	275	0.01664	0.03981	0.02984	400	400	400	0	0	1;
	266	275	0.00851	0.09415	0.01940	400	400	400	0	0	1;
	269	275	0.01366	0.08408	0.02546	400	400	400	0	0	1;
	272	275	0.00855	0.09134	0.02964	400	400	400	0	0	1;
	275	278	0.01282	0.05895	0.01188	400	400	400	0	0	1;
	275	281	0.01335	0.07142	0.02338	400	400	400	0	0	1;
	275	284	0.00763	0.07751	0.01890	400	400	400	0	0	1;
	17	291	0.00570	0.05411	0.02108	400	400	400	0	0	1;
	79	231	0.01072	0.06671	0.02241	400	400	400	0	0	1;
	40	228	0.01112	0.05099	0.00960	400	400	400	0	0	1;
	71	294	0.01307	0.04687	0.01063	400	400	400	0	0	1;
	188	272	0.01786	0.04010	0.01658	400	400	400	0	0	1;
	161	204	0.00586	0.05889	0.01541	400	400	400	0	0	1;
	128	143	0.01295	0.05719	0.01137	400	400	400	0	0	1;
	14	59	0.00995	0.03553	0.01624	400	400	400	0	0	1;
	96	256	0.01057	0.06749	0.02574	400	400	400	0	0	1;
	199	266	0.00577	0.05640	0.02012	400	400	400	0	0	1;
	61	288	0.00559	0.03509	0.02512	400	400	400	0	0	1;
	110	229	0.01381	0.07700	0.01043	400	400	400	0	0	1;
	147	252	0.00813	0.09349	0.01258	400	400	400	0	0	1;
	63	103	0.01863	0.04483	0.00975	400	400	400	0	0	1;
	38	70	0.01612	0.08228	0.02386	400	400	400	0	0	1;
	89	232	0.01872	0.07869	0.02259	400	400	400	0	0	1;
	45	228	0.01095	0.04675	0.01304	400	400	400	0	0	1;
	164	178	0.00925	0.06264	0.02122	400	400	400	0	0	1;
	34	282	0.00963	0.05518	0.02707	400	400	400	0	0	1;
	149	278	0.01199	0.08620	0.02306	400	400	400	0	0	1;
	81	154	0.01642	0.05242	0.01008	400	400	400	0	0	1;
	90	186	0.00969	0.03320	0.02660	400	400	400	0	0	1;
	115	261	0.01612	0.03114	0.01883	400	400	400	0	0	1;
	72	122	0.00794	0.04610	0.01924	400	400	400	0	0	1;
	14	253	0.00869	0.06854	0.02859	400	400	400	0	0	1;
	185	284	0.01006	0.08344	0.01722	400	400	400	0	0	1;
	189	294	0.01585	0.08177	0.01652	400	400	400	0	0	1;
	240	283	0.01599	0.05465	0.00850	400	400	400	0	0	1;
	45	67	0.01320	0.04288	0.02723	400	400	400	0	0	1;
	34	159	0.01985	0.09701	0.01810	400	400	400	0	0	1;
	204	246	0.01759	0.03520	0.02545	400	400	400	0	0	1;
	211	270	0.00573	0.03045	0.00844	400	400	400	0	0	1;
	210	295	0.01446	0.03476	0.00878	400	400	400	0	0	1;
	38	65	0.00828	0.06192	0.00651	400	400	400	0	0	1;
	38	163	0.01457	0.09537	0.02782	400	400	400	0	0	1;
	231	239	0.01489	0.03110	0.01831	400	400	400	0	0	1;
	177	265	0.01117	0.03117	0.02305	400	400	400	0	0	1;
	66	283	0.01304	0.05007	0.01756	400	400	400	0	0	1;
	67	94	0.01547	0.06014	0.02849	400	400	400	0	0	1;
	222	258	0.00769	0.09426	0.01811	400	400	400	0	0	1;
	29	64	0.00861	0.07338	0.01131	400	400	400	0	0	1;
	79	266	0.01032	0.08565	0.00698	400	400	400	0	0	1;
	85	156	0.01939	0.06213	0.01108	400	400	400	0	0	1;
	83	166	0.01546	0.05100	0.02570	400	400	400	0	0	1;
	116	178	0.00621	0.09942	0.02125	400	400	400	0	0	1;
	146	266	0.00548	0.05837	0.01443	400	400	400	0	0	1;
	41	129	0.01214	0.07457	0.02257	400	400	400	0	0	1;
	101	283	0.00624	0.08917	0.02112	400	400	400	0	0	1;
	65	141	0.00997	0.09841	0.02935	400	400	400	0	0	1;
	156	274	0.01842	0.09434	0.01074	400	400	400	0	0	1;
	48	258	0.01852	0.07846	0.01917	400	400	400	0	0	1;
	87	298	0.00907	0.09469	0.02211	400	400	400	0	0	1;
	79	88	0.00921	0.06801	0.02145	400	400	400	0	0	1;
	173	289	0.00769	0.08953	0.00539	400	400	400	0	0	1;
	15	22	0.00811	0.04009	0.02552	400	400	400	0	0	1;
	24	42	0.01731	0.09502	0.01248	400	400	400	0	0	1;
	136	296	0.01346	0.06967	0.02624	400	400	400	0	0	1;
	108	293	0.01516	0.06784	0.01460	400	400	400	0	0	1;
	16	214	0.01610	0.08533	0.02223	400	400	400	0	0	1;
	255	280	0.00618	0.08218	0.01365	400	400	400	0	0	1;
	149	155	0.00647	0.04625	0.00690	400	400	400	0	0	1;
	126	248	0.01408	0.07297	0.01989	400	400	400	0	0	1;
	153	208	0.01953	0.05285	0.02085	400	400	400	0	0	1;
	38	233	0.01675	0.06154	0.01070	400	400	400	0	0	1;
	31	81	0.01330	0.05628	0.00964	400	400	400	0	0	1;
	213	226	0.01379	0.05661	0.02430	400	400	400	0	0	1;
	238	248	0.00943	0.04725	0.00684	400	400	400	0	0	1;
	105	175	0.00902	0.05660	0.02460	400	400	400	0	0	1;
	74	161	0.00731	0.05727	0.01402	400	400	400	0	0	1;
	164	177	0.00637	0.09601	0.01612	400	400	400	0	0	1;
	67	205	0.01642	0.03716	0.00718	400	400	400	0	0	1;
	190	264	0.01146	0.06899	0.01781	400	400	400	0	0	1;
	55	288	0.00655	0.03627	0.01886	400	400	400	0	0	1;
	124	164	0.01395	0.08491	0.02659	400	400	400	0	0	1;
	63	239	0.00519	0.05897	0.02448	400	400	400	0	0	1;
	137	231	0.01587	0.06917	0.02982	400	400	400	0	0	1;
	73	127	0.00864	0.06648	0.02213	400	400	400	0	0	1;
	26	50	0.00754	0.04882	0.01171	400	400	400	0	0	1;
	149	197	0.00719	0.04170	0.01190	400	400	400	0	0	1;
	128	215	0.00950	0.08479	0.01403	400	400	400	0	0	1;
	82	168	0.01916	0.08046	0.01740	400	400	400	0	0	1;
	161	296	0.01425	0.06205	0.00839	400	400	400	0	0	1;
	82	98	0.00510	0.05770	0.02604	400	400	400	0	0	1;
	256	264	0.01070	0.09035	0.01601	400	400	400	0	0	1;
	240	256	0.01146	0.08765	0.02128	400	400	400	0	0	1;
	158	255	0.01392	0.05103	0.02008	400	400	400	0	0	1;
	12	47	0.01543	0.06353	0.00944	400	400	400	0	0	1;
	202	259	0.01097	0.05234	0.02337	400	400	400	0	0	1;
	124	235	0.01449	0.09774	0.02455	400	400	400	0	0	1;
	111	299	0.00989	0.04962	0.02465	400	400	400	0	0	1;
	25	181	0.01048	0.09524	0.01000	400	400	400	0	0	1;
	26	145	0.01996	0.04259	0.02419	400	400	400	0	0	1;
	241	254	0.00540	0.08090	0.02857	400	400	400	0	0	1;
	147	275	0.00814	0.08584	0.02578	400	400	400	0	0	1;
	5	56	0.00604	0.08935	0.02488	400	400	400	0	0	1;
	69	221	0.01509	0.03974	0.01257	400	400	400	0	0	1;
	136	188	0.00879	0.04079	0.01558	400	400	400	0	0	1;
	188	207	0.01065	0.06143	0.01995	400	400	400	0	0	1;
	24	206	0.01373	0.06741	0.02809	400	400	400	0	0	1;
	27	292	0.01804	0.05928	0.00592	400	400	400	0	0	1;
	100	288	0.01953	0.07911	0.02531	400	400	400	0	0	1;
	186	284	0.01391	0.09401	0.00773	400	400	400	0	0	1;
	38	148	0.00872	0.07653	0.00916	400	400	400	0	0	1;
	198	259	0.01419	0.06943	0.02113	400	400	400	0	0	1;
	231	282	0.01470	0.09768	0.01329	400	400	400	0	0	1;
	61	144	0.01694	0.03742	0.00747	400	400	400	0	0	1;
	50	66	0.00833	0.08228	0.01895	400	400	400	0	0	1;
	192	202	0.01531	0.04547	0.01435	400	400	400	0	0	1;
	174	286	0.01195	0.07757	0.02226	400	400	400	0	0	1;
	74	188	0.00726	0.09984	0.01707	400	400	400	0	0	1;
	102	261	0.00943	0.09444	0.00715	400	400	400	0	0	1;
	206	257	0.01747	0.08111	0.01371	400	400	400	0	0	1;
	21	24	0.01015	0.08490	0.01803	400	400	400	0	0	1;
	20	71	0.01022	0.03683	0.02305	400	400	400	0	0	1;
	171	243	0.01179	0.03470	0.00612	400	400	400	0	0	1;
	234	266	0.01566	0.03158	0.01358	400	400	400	0	0	1;
	77	264	0.00664	0.08600	0.02825	400	400	400	0	0	1;
	72	168	0.01611	0.06612	0.01880	400	400	400	0	0	1;
	84	164	0.00996	0.05985	0.01655	400	400	400	0	0	1;
	154	202	0.01697	0.07408	0.00966	400	400	400	0	0	1;
	173	260	0.01486	0.05769	0.02343	400	400	400	0	0	1;
	261	273	0.01825	0.06147	0.01574	400	400	400	0	0	1;
	251	289	0.00507	0.04504	0.01196	400	400	400	0	0	1;
	154	244	0.01556	0.08572	0.01943	400	400	400	0	0	1;
	9	189	0.01699	0.06758	0.01414	400	400	400	0	0	1;
	57	170	0.00796	0.03798	0.02177	400	400	400	0	0	1;
	214	299	0.01234	0.09761	0.01284	400	400	400	0	0	1;
	14	158	0.01083	0.05748	0.00786	400	400	400	0	0	1;
	136	243	0.01028	0.06205	0.00931	400	400	400	0	0	1;
	27	117	0.01510	0.08604	0.02797	400	400	400	0	0	1;
	246	299	0.01385	0.07705	0.01283	400	400	400	0	0	1;
	88	269	0.00858	0.03819	0.01433	400	400	400	0	0	1;
	76	195	0.00712	0.05719	0.01991	400	400	400	0	0	1;
	17	125	0.01362	0.05961	0.01717	400	400	400	0	0	1;
	57	294	0.01306	0.09434	0.02827	400	400	400	0	0	1;
	10	98	0.00760	0.04168	0.01222	400	400	400	0	0	1;
	161	226	0.00781	0.08894	0.02049	400	400	400	0	0	1;
	78	215	0.01798	0.09663	0.01712	400	400	400	0	0	1;
	105	212	0.00793	0.05688	0.01904	400	400	400	0	0	1;
	211	257	0.01480	0.05864	0.01729	400	400	400	0	0	1;
	32	242	0.01565	0.06107	0.00918	400	400	400	0	0	1;
	71	266	0.01348	0.08571	0.01051	400	400	400	0	0	1;
	107	288	0.00549	0.04574	0.01222	400	400	400	0	0	1;
	167	245	0.01671	0.06960	0.02431	400	400	400	0	0	1;
	193	270	0.01243	0.06576	0.01932	400	400	400	0	0	1;
	89	161	0.00902	0.06802	0.02977	400	400	400	0	0	1;
	236	273	0.01313	0.08298	0.02400	400	400	400	0	0	1;
	176	280	0.01162	0.04530	0.01563	400	400	400	0	0	1;
	136	182	0.01604	0.07576	0.01119	400	400	400	0	0	1;
	99	248	0.01812	0.03226	0.01157	400	400	400	0	0	1;
	127	143	0.01793	0.03609	0.02663	400	400	400	0	0	1;
	153	286	0.00676	0.08683	0.01025	400	400	400	0	0	1;
	116	153	0.01606	0.07824	0.02653	400	400	400	0	0	1;
	107	148	0.01415	0.05997	0.02040	400	400	400	0	0	1;
	163	251	0.01677	0.08695	0.02514	400	400	400	0	0	1;
	179	246	0.01355	0.06726	0.01992	400	400	400	0	0	1;
	141	287	0.00753	0.09853	0.01232	400	400	400	0	0	1;
	63	148	0.01359	0.09667	0.01786	400	400	400	0	0	1;
	279	294	0.01850	0.08706	0.00839	400	400	400	0	0	1;
	195	203	0.01625	0.05881	0.00648	400	400	400	0	0	1;
	75	177	0.00916	0.07591	0.02254	400	400	400	0	0	1;
	22	149	0.00699	0.04024	0.01305	400	400	400	0	0	1;
	41	148	0.00871	0.08905	0.01482	400	400	400	0	0	1;
	178	227	0.00713	0.07427	0.02070	400	400	400	0	0	1;
	132	246	0.01063	0.03529	0.02486	400	400	400	0	0	1;
	104	110	0.01653	0.05820	0.02375	400	400	400	0	0	1;
	139	276	0.01542	0.09141	0.01637	400	400	400	0	0	1;
	140	288	0.01232	0.07074	0.02672	400	400	400	0	0	1;
	56	71	0.01771	0.03652	0.02930	400	400	400	0	0	1;
	26	272	0.01452	0.07881	0.02625	400	400	400	0	0	1;
	116	120	0.01694	0.05784	0.02920	400	400	400	0	0	1;
	27	52	0.01737	0.06463	0.01307	400	400	400	0	0	1;
	170	212	0.00925	0.06831	0.00826	400	400	400	0	0	1;
	52	242	0.01779	0.08518	0.02735	400	400	400	0	0	1;
	3	71	0.01643	0.03322	0.02065	400	400	400	0	0	1;
	81	282	0.01755	0.03114	0.02824	400	400	400	0	0	1;
	209	244	0.00737	0.06196	0.02980	400	400	400	0	0	1;
	103	245	0.01142	0.09970	0.02774	400	400	400	0	0	1;
	148	165	0.01823	0.05113	0.02686	400	400	400	0	0	1;
	31	147	0.01815	0.03653	0.01401	400	400	400	0	0	1;
	46	294	0.00624	0.07652	0.02122	400	400	400	0	0	1;
	119	274	0.00578	0.07379	0.02315	400	400	400	0	0	1;
	20	90	0.01633	0.06005	0.00728	400	400	400	0	0	1;
	91	214	0.00643	0.04494	0.00695	400	400	400	0	0	1;
	19	204	0.01391	0.06636	0.01613	400	400	400	0	0	1;
	96	254	0.00512	0.05405	0.00801	400	400	400	0	0	1;
	20	149	0.01791	0.07858	0.01694	400	400	400	0	0	1;
	5	153	0.00843	0.03625	0.02515	400	400	400	0	0	1;
	55	291	0.00655	0.05573	0.01248	400	400	400	0	0	1;
	146	172	0.01074	0.08694	0.02686	400	400	400	0	0	1;
	233	279	0.01462	0.07740	0.00671	400	400	400	0	0	1;
	253	269	0.01345	0.07272	0.00910	400	400	400	0	0	1;
	69	259	0.01027	0.04491	0.02371	400	400	400	0	0	1;
	140	240	0.01880	0.07313	0.01606	400	400	400	0	0	1;
	58	99	0.00826	0.09276	0.00850	400	400	400	0	0	1;
];
